Version 4
SHEET 1 2724 1332
WIRE -256 -400 -272 -400
WIRE -160 -400 -176 -400
WIRE -272 -304 -272 -400
WIRE -256 -304 -272 -304
WIRE -160 -304 -160 -400
WIRE -160 -304 -192 -304
WIRE 1008 -304 752 -304
WIRE 1008 -288 1008 -304
WIRE -272 -224 -272 -304
WIRE -256 -224 -272 -224
WIRE -160 -224 -160 -304
WIRE -160 -224 -176 -224
WIRE 624 -176 576 -176
WIRE 704 -176 624 -176
WIRE 752 -176 752 -304
WIRE 752 -176 704 -176
WIRE 864 -176 752 -176
WIRE 1008 -176 1008 -208
WIRE -272 -144 -272 -224
WIRE -160 -144 -160 -224
WIRE 704 -144 704 -176
WIRE 576 -128 576 -176
WIRE 624 -128 624 -176
WIRE 864 -80 864 -176
WIRE -160 -32 -160 -64
WIRE -80 -32 -160 -32
WIRE 176 -32 -80 -32
WIRE 304 -32 176 -32
WIRE 416 -32 384 -32
WIRE 576 -32 576 -64
WIRE 576 -32 496 -32
WIRE 624 -32 624 -64
WIRE 624 -32 576 -32
WIRE 704 -32 704 -64
WIRE 704 -32 624 -32
WIRE 800 -32 704 -32
WIRE 912 16 864 16
WIRE 1040 16 992 16
WIRE -272 32 -272 -64
WIRE -160 32 -272 32
WIRE 176 48 176 -32
WIRE 704 48 704 -32
WIRE 864 48 864 16
WIRE -160 64 -160 32
WIRE 1040 96 1040 16
WIRE 176 144 176 128
WIRE 704 144 704 128
WIRE 864 144 864 128
WIRE 864 144 800 144
WIRE 864 160 864 144
WIRE -160 176 -160 144
WIRE 800 192 800 144
WIRE 800 192 768 192
WIRE 176 256 176 224
WIRE 704 272 704 240
WIRE 864 272 864 240
WIRE 864 272 704 272
WIRE 1040 272 1040 160
WIRE 1040 272 864 272
WIRE 704 304 704 272
WIRE 176 368 176 336
FLAG 704 304 0
FLAG 1008 -176 0
FLAG -160 176 0
FLAG -80 -32 line
FLAG 1040 16 v1
FLAG 176 368 0
SYMBOL voltage -160 48 R0
WINDOW 123 0 0 Left 0
WINDOW 39 0 0 Left 0
SYMATTR InstName V1
SYMATTR Value SINE(0 {Vline} 50)
SYMBOL diode 592 -64 R180
WINDOW 0 24 64 Left 2
WINDOW 3 24 0 Left 2
SYMATTR InstName D1
SYMATTR Value 1N4148
SYMBOL cap 608 -128 R0
SYMATTR InstName C1
SYMATTR Value 10n
SYMBOL res 688 -160 R0
SYMATTR InstName R5
SYMATTR Value 22k
SYMBOL res 688 32 R0
SYMATTR InstName R6
SYMATTR Value 22k
SYMBOL res 848 32 R0
SYMATTR InstName R7
SYMATTR Value 47k
SYMBOL res 848 144 R0
SYMATTR InstName R8
SYMATTR Value 10k
SYMBOL res 1008 0 R90
WINDOW 0 0 56 VBottom 2
WINDOW 3 32 56 VTop 2
SYMATTR InstName R9
SYMATTR Value 2k2
SYMBOL cap 1024 96 R0
SYMATTR InstName C2
SYMATTR Value 1n
SYMBOL npn 768 144 M0
SYMATTR InstName Q1
SYMATTR Value BC847B
SYMBOL pnp 800 16 M180
SYMATTR InstName Q2
SYMATTR Value BC857B
SYMBOL voltage 1008 -304 R0
WINDOW 123 0 0 Left 0
WINDOW 39 0 0 Left 0
SYMATTR InstName V2
SYMATTR Value 5
SYMBOL res -160 -240 R90
WINDOW 0 0 56 VBottom 2
WINDOW 3 32 56 VTop 2
SYMATTR InstName R23
SYMATTR Value 50Meg
SYMBOL cap -192 -320 R90
WINDOW 0 0 32 VBottom 2
WINDOW 3 32 32 VTop 2
SYMATTR InstName C6
SYMATTR Value 500p
SYMBOL ind2 -176 -160 R0
SYMATTR InstName L1
SYMATTR Value 600n
SYMATTR Type ind
SYMBOL ind2 -288 -160 R0
SYMATTR InstName L2
SYMATTR Value 600n
SYMATTR Type ind
SYMBOL res 160 32 R0
SYMATTR InstName R2
SYMATTR Value 169k
SYMBOL res 160 128 R0
SYMATTR InstName R24
SYMATTR Value 169k
SYMBOL res 160 240 R0
SYMATTR InstName R25
SYMATTR Value 169k
SYMBOL res 400 -48 R90
WINDOW 0 0 56 VBottom 2
WINDOW 3 32 56 VTop 2
SYMATTR InstName R26
SYMATTR Value {bot}
SYMBOL res 512 -48 R90
WINDOW 0 0 56 VBottom 2
WINDOW 3 32 56 VTop 2
SYMATTR InstName R27
SYMATTR Value {bot}
SYMBOL res -160 -416 R90
WINDOW 0 0 56 VBottom 2
WINDOW 3 32 56 VTop 2
SYMATTR InstName R1
SYMATTR Value 1
TEXT -328 384 Left 2 !.tran 0 160m 40m
TEXT -328 344 Left 2 ;.step param Vline list 120 424
TEXT -328 304 Left 2 !.param Vline 425
TEXT -328 264 Left 2 ;.step param temp list 0 25 85
TEXT 1080 -176 Left 2 ;.step param bot list 169k 220k
TEXT -488 -200 Left 2 !k1 l1 l2 0.9
TEXT 1176 -216 Left 2 !.param bot 169k
TEXT 280 -512 Left 4 ;Circuit1
TEXT -408 -480 Left 3 ;Harness and door switch
TEXT -320 440 Left 2 !.options plotwinsize=0
RECTANGLE Normal -112 0 -336 -448 2
RECTANGLE Normal 1504 464 -528 -576 2
